test/test_files/validation_tests/case6470rte_res.m
function mpc = case6470rte_res
%CASE6470RTE_RES

%% MATPOWER Case Format : Version 2
mpc.version = '2';

%%-----  Power Flow Data  -----%%
%% system MVA base
mpc.baseMVA = 100;

%% bus data
%	bus_i	type	Pd	Qd	Gs	Bs	area	Vm	Va	baseKV	zone	Vmax	Vmin
mpc.bus = [
	1	1	0	0	0	0	1	0.976135324	-12.9875828	45	1	1	0.888889;
	2	1	0	0	0	0	1	1.02642798	-12.9209735	63	1	1.06349	0.936508;
	3	1	12.5	-0.7	0	0	1	1.00503431	-13.9159361	63	1	1.07937	0.952381;
	4	1	44.7	-0.9	0	0	1	1.04420421	-12.9910682	90	1	1.08889	0.933333;
	5	1	12	0.1	0	0	1	1.01635585	-44.9201226	63	1	1.06349	0.952381;
	6	1	13	4.3	0	0	1	1.03382846	-21.1543304	63	1	1.07937	0.920635;
	7	1	1.2	0.8	0	0	1	1.04376781	-23.4100848	63	1	1.07937	0.920635;
	8	1	25.8	4.9	0	0	1	1.0613716	-9.10418767	225	1	1.08889	0.888889;
	9	1	12.9	0	0	0	1	1.04218481	-19.6871489	63	1	1.06349	0.936508;
	10	1	0	0	0	0	1	1.03392009	-13.0549496	90	1	1.07778	0.922222;
	11	1	28.8	1.1	0	0	1	1.03391987	-13.0549471	90	1	1.07778	0.922222;
	12	1	0	0	0	0	1	1.01220506	1.48219297	63	1	1.07937	0.952381;
	13	1	0	0	0	0	1	1.05892226	-5.03813018	380	1	1.10263	1.05526;
	14	1	51.5	1.9	0	0	1	1.06276651	-23.9128872	90	1	1.07778	0.977778;
	15	1	0	0	0	0	1	1.00803207	-27.2598438	63	1	1.07937	0.920635;
	16	1	13.8	4.1	0	0	1	1.02765775	-30.1772125	63	1	1.07937	0.920635;
	17	1	13.1	0.2	0	0	1	1.04678283	-29.17573	90	1	1.06667	0.977778;
	18	1	0	0	0	0	1	0.943683132	-6.2155084	45	1	1	0.888889;
	19	1	1	0	0	0	1	1.01840923	-21.4740652	63	1	1.06349	0.936508;
	20	1	0.9	-21.5	0	0	1	0.944675604	-6.24536997	45	1	1	0.888889;
	21	1	8.3	-3.3	0	0	1	1.04078363	-20.2816636	90	1	1.06667	0.977778;
	22	1	18	1.1	0	0	1	1.01396601	-11.090622	63	1	1.07937	0.952381;
	23	1	19.2	3.4	0	0	1	1.01094638	-10.1341522	63	1	1.06349	0.936508;
	24	1	16.1	-1.6	0	0	1	1.04095062	-12.3146476	90	1	1.11111	0.955556;
	25	1	59.9	-3.2	0	0	1	1.07238186	-8.4163516	90	1	1.1	0.944444;
	26	1	35.1	8.1	0	0	1	1.02301673	-21.9622899	90	1	1.06667	0.977778;
	27	1	0	0	0	0	1	1.06710622	-17.5930893	225	1	1.08444	1.00444;
	28	1	0.7	0.2	0	0	1	1.02281399	-19.0802778	63	1	1.07937	0.952381;
	29	1	60.1	2.7	0	0	1	1.00764281	-24.8514804	63	1	1.06349	0.968254;
	30	1	33.5	-0.9	0	0	1	1.03465163	-13.166494	90	1	1.08889	0.933333;
	31	1	0	0	0	0	1	1.02725644	-9.76750734	63	1	1.06349	0.936508;
	32	1	0	0	0	0	1	1.03648763	-4.81881747	150	1	1.10667	0.9;
	33	1	0	0	0	0	1	1.05453302	-7.48985086	225	1	1.08889	0.933333;
	34	1	0	0	0	0	1	1.05382679	-6.60072449	225	1	1.08889	0.933333;
	35	1	0	0	0	0	1	1.07407432	-6.15227525	380	1	1.10526	1.03947;
	36	1	0	0	0	0	1	1.07981194	-5.32056114	380	1	1.10526	1.03947;
	37	1	3.2	4.3	0	0	1	1.00780047	-25.5951085	63	1	1.07937	0.920635;
	38	1	6	-2	0	0	1	1.05045128	-12.5575786	63	1	1.09524	0.936508;
	39	1	41	-3.3	0	0	1	1.03860535	-32.8187795	90	1	1.07778	0.977778;
	40	1	32.6	0.5	0	0	1	1.05927183	-22.0753255	90	1	1.07778	0.977778;
	41	1	0	0	0	0	1	1.07994117	-18.1068338	225	1	1.08889	1.00444;
	42	1	0	0	0	0	1	1.12051301	5.62327658	63	1	1.13259	0.952381;
	43	1	3.6	2	0	0	1	1.04594618	-18.1300683	90	1	1.07778	0.977778;
	44	1	13	-0.7	0	0	1	1.02400676	-45.311438	63	1	1.06349	0.952381;
	45	1	3.9	1.7	0	0	1	1.00835368	-29.0244792	90	1	1.06667	0.977778;
	46	1	0	0	0	0	1	1.0124352	-16.8880048	63	1	1.06349	0.936508;
	47	2	0	0	0	0	1	1.012	-14.645547	63	1	1.06349	0.936508;
	48	1	36.5	3.4	0	0	1	1.0340232	-13.0537888	90	1	1.07778	0.922222;
	49	1	8.8	-1.7	0	0	1	1.0182624	-16.2518964	63	1	1.06349	0.936508;
	50	1	0	0	0	0	1	1.06347616	-15.8316089	63	1	1.07012	0.936508;
	51	1	0	0	0	0	1	1.05402053	-11.3433403	225	1	1.08889	0.933333;
	52	1	5	2.4	0	0	1	1.03592727	-30.7564752	90	1	1.06667	0.977778;
	53	1	2.5	-0.5	0	0	1	1.01729743	-17.5346224	63	1	1.04762	0.952381;
	54	1	-0.4	-0	0	0	1	1.03781665	-15.7996776	90	1	1.06667	0.977778;
	55	1	37.6	6.7	0	0	1	1.06961296	-18.9088133	225	1	1.08889	1.00444;
	56	1	52.1	13.5	0	0	1	1.07717062	-15.4484539	225	1	1.08889	1.00444;
	57	2	0	0	0	0	1	1.051	-23.8079898	63	1	1.07937	0.920635;
	58	1	130.6	30.1	0	0	1	1.06941541	-18.9257558	225	1	1.08889	1.00444;
	59	1	5.1	1.3	0	0	1	1.01246437	-11.9369768	63	1	1.07937	0.952381;
	60	1	0	0	0	0	1	1.0263095	-5.71730786	63	1	1.07937	0.952381;
	61	1	39.5	9.7	0	0	1	1.03149099	-8.2747102	63	1	1.07937	0.952381;
	62	1	0	0	0	0	1	1.01212851	-6.02686044	63	1	1.07937	0.952381;
	63	1	15.8	2	0	0	1	1.01100283	1.58082257	63	1	1.07937	0.952381;
	64	1	62.4	1	0	0	1	1.07394792	-6.80749559	225	1	1.08889	0.888889;
	65	1	11	2.8	0	0	1	1.04323713	-8.82732874	63	1	1.07937	0.952381;
	66	1	13.2	-7.9	0	0	1	1.02766847	-25.7167037	63	1	1.06349	0.936508;
	67	1	0	0	0	0	1	1.04382543	-19.3518137	63	1	1.07937	0.920635;
	68	1	48.1	-0.1	0	0	1	1.01281039	-16.3773637	63	1	1.06349	0.936508;
	69	1	19.3	-2.7	0	0	1	1.04103404	-49.391297	63	1	1.06349	0.952381;
	70	1	10.6	2.7	0	0	1	1.0149275	2.13356597	63	1	1.07937	0.952381;
	71	1	62.4	14.9	0	0	1	1.0270316	-19.7164845	63	1	1.04762	0.952381;
	72	1	0	0	0	0	1	1.08833148	-12.1242799	225	1	1.09027	1.00444;
	73	1	0	0	0	0	1	1.08830871	-12.1248825	225	1	1.09025	1.00444;
	74	1	50.4	-9.9	0	0	1	1.07421562	-6.68583421	225	1	1.08889	0.888889;
	75	1	22.3	1.8	0	0	1	1.05912761	-15.2222174	90	1	1.0673	0.977778;
	76	1	2.6	-0.4	0	0	1	1.07654403	4.81680521	225	1	1.08923	0.986667;
	77	1	36.8	-0.4	0	0	1	1.0172173	-16.1381229	63	1	1.06349	0.936508;
	78	1	0	0	0	0	1	1.01713501	-24.7894163	63	1	1.07937	0.920635;
	79	1	0	0	0	0	1	1.0233287	-15.8475159	63	1	1.04762	0.952381;
	80	1	32.3	7.3	0	0	1	1.07788234	-15.7071334	225	1	1.08889	1.00444;
	81	1	36.3	9.9	0	0	1	1.07789352	-15.7072508	225	1	1.08889	1.00444;
	82	1	11.7	1.6	0	0	1	1.01680664	-17.7494038	63	1	1.06349	0.936508;
	83	1	77.5	26.4	0	0	1	1.06117126	-18.1152106	225	1	1.08889	1.00444;
	84	1	-1.6	-1.2	0	0	1	1.01460966	-12.8501531	63	1	1.06349	0.936508;
	85	1	2.1	-2.1	0	0	1	1.03363532	-18.6193497	63	1	1.06349	0.936508;
	86	1	48.9	3.6	0	0	1	1.02064907	-38.5971036	90	1	1.06667	0.977778;
	87	1	0	0	0	0	1	1.01876449	1.31946858	63	1	1.07937	0.952381;
	88	1	13.5	-0.1	0	0	1	1.01592598	-21.6906442	63	1	1.06349	0.936508;
	89	1	25.4	0.8	0	0	1	1.0379702	-20.8635895	90	1	1.07778	0.977778;
	90	1	0.4	-1.4	0	0	1	0.942248777	-7.00258184	45	1	1	0.888889;
	91	1	1	0	0	0	1	0.943074695	-6.29975855	45	1	1	0.888889;
	92	1	28.6	3.2	0	0	1	1.00978634	-20.3689784	63	1	1.06349	0.968254;
	93	1	2.1	-2.5	0	0	1	0.958656559	-8.71223838	45	1	1	0.888889;
	94	1	17.5	-4.3	0	0	1	1.04379161	-19.716726	90	1	1.06667	0.977778;
	95	1	46.5	7.6	0	0	1	1.03122111	-30.4790399	90	1	1.06667	0.977778;
	96	1	1.5	-0.7	0	0	1	1.0378887	-11.0738479	63	1	1.06349	0.936508;
	97	1	56.4	0.9	0	0	1	1.06437655	-25.7371332	63	1	1.07937	0.920635;
	98	1	7.4	-1.3	0	0	1	1.03837048	-15.4092444	63	1	1.07937	0.952381;
	99	1	26.9	3.1	0	0	1	1.0396916	-7.84208874	63	1	1.07937	0.952381;
	100	1	53.3	8.6	0	0	1	1.00974158	-16.7689169	63	1	1.06349	0.936508;
	101	1	17.7	0.5	0	0	1	1.00684709	-13.2698302	63	1	1.06349	0.936508;
	102	2	0	0	0	0	1	1.026	-20.4613464	63	1	1.07937	0.952381;
	103	1	18	-1.1	0	0	1	1.02700007	-6.46012852	63	1	1.07937	0.952381;
	104	1	0	0	0	0	1	1.06764506	-3.65534652	225	1	1.08889	0.986667;
	105	1	35.5	1	0	0	1	1.05574625	-6.18941936	225	1	1.08889	0.888889;
	106	1	49.8	7.5	0	0	1	1.0549998	-10.3075924	90	1	1.1	0.944444;
	107	1	77.6	8.1	0	0	1	1.053443	-27.897656	225	1	1.08444	1.00889;
	108	1	12.6	-0.4	0	0	1	1.060898	-15.8435372	90	1	1.07778	0.977778;
	109	1	68.7	10.9	0	0	1	1.03797037	-14.4462437	63	1	1.06349	0.936508;
	110	1	0	0	0	0	1	1.02483774	-10.3343884	225	1	1.08889	0.933333;
	111	1	36.5	-7.9	0	0	1	1.00464662	-23.2259907	63	1	1.06349	0.968254;
	112	1	0	0	0	0	1	1.03104171	-19.4719416	63	1	1.04762	0.952381;
	113	1	0	0	0	0	1	1.07137238	-16.7036846	225	1	1.08889	1.00444;
	114	1	10.8	-0	0	0	1	1.04131926	-14.5108006	63	1	1.06349	0.936508;
	115	1	0	0	0	0	1	1.05906628	-5.03943931	380	1	1.10526	1.05263;
	116	1	0	0	0	0	1	1.05893143	-5.03821356	380	1	1.10526	1.05263;
	117	1	15.4	-1	0	0	1	1.01177141	-18.4961346	63	1	1.07937	0.952381;
	118	1	2	0.8	0	0	1	1.06140337	-14.9518796	90	1	1.06958	0.977778;
	119	1	37.2	5.3	0	0	1	1.02092428	-10.2081947	63	1	1.06349	0.936508;
	120	1	17	-3.2	0	0	1	1.01794151	-9.19026209	63	1	1.06349	0.936508;
	121	1	17.6	3.9	0	0	1	1.02798357	-24.4577659	63	1	1.07937	0.920635;
	122	2	0	0	0	0	1	1.026	-7.07348513	63	1	1.07937	0.952381;
	123	1	9	2.6	0	0	1	1.02435036	-7.2154606	63	1	1.07937	0.952381;
	124	1	8	-0.9	0	0	1	1.03707848	-25.0896541	90	1	1.06667	0.977778;
	125	1	10.5	-0.5	0	0	1	1.03689501	-9.82599706	63	1	1.07937	0.952381;
	126	1	0.3	-0.1	0	0	1	1.02949319	-19.3000839	63	1	1.06349	0.936508;
	127	1	7.8	1.5	0	0	1	1.03397146	-19.3319747	63	1	1.04762	0.952381;
	128	1	11.8	7.6	0	0	1	1.0246115	-12.416952	63	1	1.06349	0.968254;
	129	1	16.7	11.8	0	0	1	1.02325268	-10.6824542	63	1	1.06349	0.968254;
	130	1	0	0	0	0	1	1.04822424	-10.3241573	225	1	1.08444	1.00889;
	131	1	103	13.6	0	0	1	1.04604883	-19.0249756	225	1	1.08444	1.00889;
	132	2	11.5	0	0	0	1	1.065	-22.1161923	90	1	1.07778	0.922222;
	133	1	2.1	0.5	0	0	1	1.01877742	-19.1579143	63	1	1.04762	0.952381;
	134	1	83.5	23.6	0	0	1	1.06237022	-16.5655009	225	1	1.08889	1.00444;
	135	1	0	0	0	0	1	1.07000738	-18.7681008	225	1	1.08889	1.00444;
	136	1	21.9	-0.2	0	0	1	1.04427036	-29.9638941	90	1	1.07778	0.977778;
	137	2	9.6	-4.4	0	0	1	1.032	-17.2030449	63	1	1.06349	0.968254;
	138	1	0	0	0	0	1	1.03902058	-14.7611376	150	1	1.08	0.966667;
	139	1	15.7	2.2	0	0	1	1.05095521	-19.5548088	63	1	1.07937	0.920635;
	140	1	0	0	0	80	1	1.08235205	-16.4454118	225	1	1.08889	1;
	141	1	0	0	0	0	1	1.08918012	-13.1851413	380	1	1.10526	1.05263;
	142	1	14.8	5.8	0	0	1	1.01633352	-11.5222095	63	1	1.07937	0.952381;
	143	1	0	0	0	0	1	1.06497063	-7.36488985	225	1	1.08889	0.986667;
	144	1	23.3	-10.3	0	0	1	1.04710595	-10.8038211	90	1	1.11111	0.955556;
	145	1	27.6	5.9	0	0	1	1.07498755	-6.54324976	225	1	1.08889	0.968889;
	146	1	0	0	0	0	1	1.08289199	-4.0172957	380	1	1.10526	1;
	147	1	29	5.5	0	0	1	1.03903893	-15.2633809	63	1	1.06349	0.936508;
	148	1	6.7	2.4	0	0	1	1.02578798	-13.80299	63	1	1.06349	0.936508;
	149	1	17.9	6.1	0	0	1	1.04300696	-30.1856019	90	1	1.06667	0.977778;
	150	1	44.5	6.4	0	0	1	1.02466218	-10.2215429	63	1	1.06349	0.936508;
	151	1	0	0	0	0	1	0.988179973	-26.9166464	63	1	1.06349	0.968254;
	152	1	38.3	8.8	0	7.7	1	0.988026119	-25.6451835	63	1	1.06349	0.968254;
	153	1	23.2	-2.6	0	0	1	1.03360056	-13.5171248	63	1	1.06349	0.936508;
	154	1	0	0	0	0	1	1.06485517	-9.83648165	225	1	1.08889	0.933333;
	155	2	0	0	0	0	1	0.973059153	-24.3913736	63	1	1.07937	0.920635;
	156	1	0	0	0	0	1	0.988140945	-26.919601	63	1	1.06349	0.968254;
	157	1	0.3	3.1	0	0	1	0.898621794	-8.79796023	45	1	1	0.888889;
	158	2	0	0	0	0	1	0.947	-10.3049681	45	1	1	0.888889;
	159	1	0	0	0	0	1	1.00924767	-12.5239729	63	1	1.06349	0.936508;
	160	1	35.2	5.6	0	0	1	1.06355816	-4.61184729	225	1	1.08889	0.888889;
	161	1	38.2	8.7	0	0	1	1.06341169	-4.61790595	225	1	1.08889	0.888889;
	162	1	0.7	-1.4	0	0	1	1.0252651	-18.2491079	90	1	1.06667	0.977778;
	163	1	0	0	0	0	1	1.02136691	-6.21932703	63	1	1.07937	0.952381;
	164	1	0	0	0	0	1	1.02136691	-6.21932703	63	1	1.07937	0.952381;
	165	1	16.7	9.2	0	0	1	1.0695865	-25.1598433	20	1	1.15	0.8;
	166	1	10.1	2.4	0	0	1	1.04218915	-29.5659849	90	1	1.06667	0.977778;
	167	1	13.6	0.6	0	0	1	1.03463883	-29.8826206	90	1	1.06667	0.977778;
	168	1	0	0	0	0	1	1.06967075	-25.1532157	225	1	1.08444	1.00444;
	169	1	10.8	-1	0	0	1	1.02635835	-27.5078959	90	1	1.06667	0.977778;
	170	1	70.4	11.6	0	0	1	1.04989446	-21.2501818	90	1	1.07778	0.977778;
	171	1	26.5	-0.4	0	0	1	1.04571799	-23.9166797	90	1	1.07778	0.977778;
	172	1	0	0	0	0	1	1.06465853	-19.8842679	225	1	1.08889	1.00444;
	173	1	27.7	8.5	0	0	1	1.06990619	-6.72843811	90	1	1.08889	0.933333;
	174	1	47.4	4.6	0	0	1	1.06578124	-11.2678236	90	1	1.11111	0.955556;
	175	1	0	0	0	0	1	1.00313316	-22.9951643	63	1	1.07937	0.920635;
	176	1	0	0	0	0	1	1.01288103	-20.6961546	63	1	1.07937	0.920635;
	177	2	0	0	0	0	1	1.07314468	-17.8663171	150	1	1.1	0.9;
	178	1	0	0	0	0	1	1.08307249	-16.2672437	225	1	1.08889	1.00444;
	179	1	0	0	0	0	1	1.08307271	-16.2672449	225	1	1.08889	1.00444;
	180	1	0	0	0	-32	1	1.00374216	-19.4911475	20	1	1.15	0.8;
	181	1	0	0	0	-32	1	1.02635301	-19.4431418	20	1	1.15	0.8;
	182	1	0	0	0	0	1	1.03407596	-19.3248152	63	1	1.04762	0.952381;
	183	1	0	0	0	0	1	1.08307119	-16.2672367	225	1	1.08889	1.00444;
	184	1	12.9	-4.6	0	0	1	1.04803579	-26.3020499	63	1	1.07937	0.920635;
	185	1	16	3.1	0	0	1	1.03138096	-10.6424227	63	1	1.06349	0.936508;
	186	1	4.8	-0.4	0	0	1	1.01592703	-15.4060985	63	1	1.07937	0.952381;
	187	1	5	1.4	0	0	1	1.06702479	-18.5851056	90	1	1.07778	0.977778;
	188	1	28.7	4	0	0	1	1.00764359	-12.3590809	63	1	1.07937	0.952381;
	189	1	1.1	0.3	0	0	1	1.02544484	-17.5560211	90	1	1.06667	0.977778;
	190	2	0	0	0	0	1	1.02526044	-24.3091977	63	1	1.07937	0.920635;
	191	1	16.2	1.6	0	0	1	1.02786229	-23.807739	63	1	1.07937	0.920635;
	192	2	0	0	0	0	1	0.948167611	-8.50139283	45	1	1	0.888889;
	193	1	13.8	-0.3	0	0	1	1.0286529	-27.5518547	90	1	1.06667	0.977778;
	194	1	7.4	-1.5	0	0	1	1.04988634	-24.3274679	63	1	1.07937	0.920635;
	195	1	7.9	4.8	0	0	1	1.07074605	-17.1607169	225	1	1.08889	1.00444;
	196	2	1	-0.3	0	0	1	1.037	-25.5224442	63	1	1.07937	0.920635;
	197	1	0	0	0	0	1	1.08972444	-16.6356842	63	1	1.09837	0.952381;
	198	1	0	0	0	0	1	1.08972592	-16.6357268	63	1	1.09837	0.952381;
	199	1	24.4	1.2	0	0	1	1.01120807	-29.4189005	63	1	1.07937	0.920635;
	200	1	9.3	-2.7	0	0	1	1.02943997	-25.1549496	63	1	1.07937	0.920635;
...
];

%% generator data
%	bus	Pg	Qg	Qmax	Qmin	Vg	mBase	status	Pmax	Pmin	Pc1	Pc2	Qc1min	Qc1max	Qc2min	Qc2max	ramp_agc	ramp_10	ramp_30	ramp_q	apf
mpc.gen = [
	4	0	0	0	0	1.045	100	0	12	0	0	0	0	0	0	0	0	0	0	0	0;
	4	0	0	0	0	1.045	100	0	10	0	0	0	0	0	0	0	0	0	0	0	0;
	5	6.05	0	0	0	1.017	100	1	9.1	0	0	0	0	0	0	0	0	0	0	0	0;
	11	0	0	0	0	1.035	100	0	28	0	0	0	0	0	0	0	0	0	0	0	0;
	11	0	0	0	0	1.035	100	0	18	0	0	0	0	0	0	0	0	0	0	0	0;
	17	1.22	0	0	0	1.049	100	1	8.2	0	0	0	0	0	0	0	0	0	0	0	0;
	19	0	0	0	0	1.02	100	0	1.2	0	0	0	0	0	0	0	0	0	0	0	0;
	22	0	0	0	0	1.013	100	0	10	0	0	0	0	0	0	0	0	0	0	0	0;
	24	0	0	0	0	1.042	100	0	16.1	0	0	0	0	0	0	0	0	0	0	0	0;
	24	0.18	0	0	0	1.042	100	1	35.5	0	0	0	0	0	0	0	0	0	0	0	0;
	25	3.21	0	0	0	1.074	100	1	36	0	0	0	0	0	0	0	0	0	0	0	0;
	25	0	0	0	0	1.074	100	0	27.2	0	0	0	0	0	0	0	0	0	0	0	0;
	40	0	0	0	0	1.063	100	0	8	0	0	0	0	0	0	0	0	0	0	0	0;
	47	23.8542774	-11.7408876	9.5	-9.5	1.012	100	1	16	0	0	0	0	0	0	0	0	0	0	0	0;
	47	0	0	9.5	-9.5	1.012	100	0	16	0	0	0	0	0	0	0	0	0	0	0	0;
	48	2.17	0	0	0	1.035	100	1	23	0	0	0	0	0	0	0	0	0	0	0	0;
	48	1.17	0	0	0	1.035	100	1	24	0	0	0	0	0	0	0	0	0	0	0	0;
	57	0	2.4153163	1	0.9	1.051	100	1	13	0	0	0	0	0	0	0	0	0	0	0	0;
	64	0	0	0	0	1.075	100	0	24	0	0	0	0	0	0	0	0	0	0	0	0;
	64	1.19	0	0	0	1.075	100	1	27.6	0	0	0	0	0	0	0	0	0	0	0	0;
	69	7.25	0	0	0	1.042	100	1	30.04	0	0	0	0	0	0	0	0	0	0	0	0;
	70	3.27	0	0	0	1.015	100	1	23	0	0	0	0	0	0	0	0	0	0	0	0;
	85	0	0	0	0	1.034	100	0	6.68	0	0	0	0	0	0	0	0	0	0	0	0;
	86	2.76	0	0	0	1.021	100	1	9.2	0	0	0	0	0	0	0	0	0	0	0	0;
	102	19.07	-4.27693953	21	-9	1.026	100	1	46	0	0	0	0	0	0	0	0	0	0	0	0;
	122	7.97	-0.370034686	5	-2	1.026	100	1	12	0	0	0	0	0	0	0	0	0	0	0	0;
	124	1.36	0	0	0	1.038	100	1	9	0	0	0	0	0	0	0	0	0	0	0	0;
	125	6.12	0	0	0	1.037	100	1	26	0	0	0	0	0	0	0	0	0	0	0	0;
	125	1.12	0	0	0	1.037	100	1	12	0	0	0	0	0	0	0	0	0	0	0	0;
	132	7.12	7.52549393	3	-3	1.065	100	1	17	0	0	0	0	0	0	0	0	0	0	0	0;
	132	0	0	1	-1	1.065	100	0	4	0	0	0	0	0	0	0	0	0	0	0	0;
	132	0	0	3	-3	1.065	100	0	14	0	0	0	0	0	0	0	0	0	0	0	0;
	132	0	0	3	-3	1.065	100	0	14	0	0	0	0	0	0	0	0	0	0	0	0;
	137	0	0	0.8	-0.8	1.032	100	0	18	0	0	0	0	0	0	0	0	0	0	0	0;
	137	4	-3.11132522	0.8	-0.8	1.032	100	1	18	0	0	0	0	0	0	0	0	0	0	0	0;
	155	0	0	1.76	-1.76	0.971	100	0	5.3	0	0	0	0	0	0	0	0	0	0	0	0;
	158	7.05	0.118289331	10	-13	0.947	100	1	17.9	0	0	0	0	0	0	0	0	0	0	0	0;
	158	0	0	10	-13	0.947	100	0	17.9	0	0	0	0	0	0	0	0	0	0	0	0;
	177	0	0	10	-4	1.073	100	0	30	0	0	0	0	0	0	0	0	0	0	0	0;
	190	0	0	8	-8	1.009	100	0	11	0	0	0	0	0	0	0	0	0	0	0	0;
	190	0	0	2	-2	1.009	100	0	11	0	0	0	0	0	0	0	0	0	0	0	0;
	192	0	0	14	-14	0.939	100	0	30	0	0	0	0	0	0	0	0	0	0	0	0;
	194	0	0	0	0	1.05	100	0	23.5	0	0	0	0	0	0	0	0	0	0	0	0;
	196	2.44	-0.902892504	1	0.9	1.037	100	1	15	0	0	0	0	0	0	0	0	0	0	0	0;
	196	2.44	-0.902892504	1	0.9	1.037	100	1	15	0	0	0	0	0	0	0	0	0	0	0	0;
	219	1.46	0	0	0	1.016	100	1	11.94	0	0	0	0	0	0	0	0	0	0	0	0;
	226	0	0	2	0	1.073	100	0	6	0	0	0	0	0	0	0	0	0	0	0	0;
	229	3.17	0	0	0	1.025	100	1	7.5	0	0	0	0	0	0	0	0	0	0	0	0;
	238	1.2	0	0	0	1.047	100	1	33.5	0	0	0	0	0	0	0	0	0	0	0	0;
	238	0.2	0	0	0	1.047	100	1	24.3	0	0	0	0	0	0	0	0	0	0	0	0;
	240	0	0	0	0	1.022	100	0	8	0	0	0	0	0	0	0	0	0	0	0	0;
	240	6.28	0	0	0	1.022	100	1	36	0	0	0	0	0	0	0	0	0	0	0	0;
	248	0	0	2	0	0.976	100	0	1	0	0	0	0	0	0	0	0	0	0	0	0;
	248	0	0	10	-10	0.976	100	0	31	0	0	0	0	0	0	0	0	0	0	0	0;
	248	0	0	10	-10	0.976	100	0	31	0	0	0	0	0	0	0	0	0	0	0	0;
	248	0	0	10	-10	0.976	100	0	31	0	0	0	0	0	0	0	0	0	0	0	0;
	258	0	0	10	-10	1.031	100	0	26	0	0	0	0	0	0	0	0	0	0	0	0;
	258	0	0	10	-10	1.031	100	0	26	0	0	0	0	0	0	0	0	0	0	0	0;
	260	27.18	1.23868866	1	0.9	1.071	100	1	30	0	0	0	0	0	0	0	0	0	0	0	0;
	263	3.85	-3.26788522	4	-4	0.998	100	1	8	0	0	0	0	0	0	0	0	0	0	0	0;
	271	0	0	0	0	0.997	100	0	12.6	0	0	0	0	0	0	0	0	0	0	0	0;
	284	0	0	6.1	-6.2	0.975	100	0	11.6	0	0	0	0	0	0	0	0	0	0	0	0;
	297	0	0	0	0	1.064	100	0	25.3	0	0	0	0	0	0	0	0	0	0	0	0;
	298	0	0	0	0	1.014	100	0	12	0	0	0	0	0	0	0	0	0	0	0	0;
	307	1.12	-6.2978115	9	-9	1.038	100	1	15	0	0	0	0	0	0	0	0	0	0	0	0;
	314	7.16	0	0	0	1.032	100	1	25.8	0	0	0	0	0	0	0	0	0	0	0	0;
	314	18.16	0	0	0	1.032	100	1	49.6	0	0	0	0	0	0	0	0	0	0	0	0;
	319	0	0	0	0	1.05	100	0	0	-7	0	0	0	0	0	0	0	0	0	0	0;
	319	0	0	0	0	1.05	100	0	0	-7	0	0	0	0	0	0	0	0	0	0	0;
	321	4.8	-1.29019275	0.1	-0.1	1.042	100	1	10.8	0	0	0	0	0	0	0	0	0	0	0	0;
	327	0	0	4	-4	1.023	100	0	11	0	0	0	0	0	0	0	0	0	0	0	0;
	334	0	0	13	-9	1.028	100	0	25	0	0	0	0	0	0	0	0	0	0	0	0;
	335	2.11	16.1206684	13	-9	1.037	100	1	25	0	0	0	0	0	0	0	0	0	0	0	0;
	338	9.13	-1.37381202	5	-6	1.013	100	1	13	0	0	0	0	0	0	0	0	0	0	0	0;
	340	0	0	10	-10	1.034	100	0	21	0	0	0	0	0	0	0	0	0	0	0	0;
	340	0	0	0.1	-0.1	1.034	100	0	2	0	0	0	0	0	0	0	0	0	0	0	0;
	347	0	0	0	0	1.057	100	0	2.3	0	0	0	0	0	0	0	0	0	0	0	0;
	347	15.24	0	0	0	1.057	100	1	19.5	0	0	0	0	0	0	0	0	0	0	0	0;
	350	0	0	0	0	1.058	100	0	22	0	0	0	0	0	0	0	0	0	0	0	0;
	358	0	0	30	-30	1.027	100	0	30	0	0	0	0	0	0	0	0	0	0	0	0;
	359	1.97	0	0	0	1.001	100	1	12	0	0	0	0	0	0	0	0	0	0	0	0;
	359	2.97	0	0	0	1.001	100	1	12	0	0	0	0	0	0	0	0	0	0	0	0;
	366	127.22	26.4126725	59	-26	1.078	100	1	130	0	0	0	0	0	0	0	0	0	0	0	0;
	393	0	0	0	0	1.006	100	0	2.7	0	0	0	0	0	0	0	0	0	0	0	0;
	412	1.4	0	0	0	1.026	100	1	10	0	0	0	0	0	0	0	0	0	0	0	0;
	412	1.4	0	0	0	1.026	100	1	11.5	0	0	0	0	0	0	0	0	0	0	0	0;
	432	0	0	0	0	1.047	100	0	12	0	0	0	0	0	0	0	0	0	0	0	0;
	441	0	0	10.96	-11.99	1.023	100	0	34.25	0	0	0	0	0	0	0	0	0	0	0	0;
	448	0	0	8	-9	0.992	100	0	25	0	0	0	0	0	0	0	0	0	0	0	0;
	463	0	0	0	0	1.013	100	0	2.4	0	0	0	0	0	0	0	0	0	0	0	0;
	463	3.21	0	0	0	1.013	100	1	16	0	0	0	0	0	0	0	0	0	0	0	0;
	465	7.19	0.810142457	6	-3	1.171	100	1	27	1	0	0	0	0	0	0	0	0	0	0	0;
	465	7.19	0.810142457	6	-3	1.171	100	1	27	1	0	0	0	0	0	0	0	0	0	0	0;
	467	42.78	10.449997	19	-10	1.042	100	1	48	1	0	0	0	0	0	0	0	0	0	0	0;
	471	0	0	6	-6	1.035	100	0	10	0	0	0	0	0	0	0	0	0	0	0	0;
	471	0	0	5.4	-5.4	1.035	100	0	9	0	0	0	0	0	0	0	0	0	0	0	0;
	480	0	0	17	-16	0.982	100	0	27	0	0	0	0	0	0	0	0	0	0	0	0;
	480	0	0	17	-16	0.982	100	0	27	0	0	0	0	0	0	0	0	0	0	0	0;
	480	0	0	17	-16	0.982	100	0	27	0	0	0	0	0	0	0	0	0	0	0	0;
	492	0	0	8	-17	1.055	100	0	23.4	0	0	0	0	0	0	0	0	0	0	0	0;
	509	0	0	2	-2	1.002	100	0	4	0	0	0	0	0	0	0	0	0	0	0	0;
	518	0	0	0	0	1	100	0	10	0	0	0	0	0	0	0	0	0	0	0	0;
	519	8.33	0	0	0	1.035	100	1	12	0	0	0	0	0	0	0	0	0	0	0	0;
	529	0	0	4.8	-4.8	1.017	100	0	8	0	0	0	0	0	0	0	0	0	0	0	0;
	529	0	0	4.8	-4.8	1.017	100	0	8	0	0	0	0	0	0	0	0	0	0	0	0;
	529	1.95	-5.04295717	4.8	-4.8	1.017	100	1	8	0	0	0	0	0	0	0	0	0	0	0	0;
	535	0.28	0	0	0	1.014	100	1	12	0	0	0	0	0	0	0	0	0	0	0	0;
	535	4.28	0	0	0	1.014	100	1	24	0	0	0	0	0	0	0	0	0	0	0	0;
	544	1.22	1.74802208	2	1.9	1	100	1	9	0	0	0	0	0	0	0	0	0	0	0	0;
	547	0	0	2	0	0.984	100	0	12	0	0	0	0	0	0	0	0	0	0	0	0;
	569	2.23	0	0	0	1.006	100	1	12	0	0	0	0	0	0	0	0	0	0	0	0;
	569	12.23	0	0	0	1.006	100	1	30	0	0	0	0	0	0	0	0	0	0	0	0;
	569	5.23	0	0	0	1.006	100	1	11.5	0	0	0	0	0	0	0	0	0	0	0	0;
	582	4.38	4.13513121	7	-4	1.029	100	1	16	0	0	0	0	0	0	0	0	0	0	0	0;
	584	0.16	0	0	0	0.993	100	1	9	0	0	0	0	0	0	0	0	0	0	0	0;
	585	1.04	-0.0972891282	5.7	-5.7	1.01	100	1	9.5	0	0	0	0	0	0	0	0	0	0	0	0;
	588	0	0	0.1	-0.1	1.029	100	0	1	0	0	0	0	0	0	0	0	0	0	0	0;
	592	0	0	10	-10	1.012	100	0	21	0	0	0	0	0	0	0	0	0	0	0	0;
	599	0	0	1	-1	1.026	100	0	6.1	0	0	0	0	0	0	0	0	0	0	0	0;
	609	41.38	-3.61107993	45	-45	1.02	100	1	45	0	0	0	0	0	0	0	0	0	0	0	0;
	609	0	0	45	-45	1.02	100	0	45	0	0	0	0	0	0	0	0	0	0	0	0;
	611	3.39	0	0	0	1.01	100	1	12	0	0	0	0	0	0	0	0	0	0	0	0;
	611	3.39	0	0	0	1.01	100	1	12	0	0	0	0	0	0	0	0	0	0	0	0;
	611	3.39	0	0	0	1.01	100	1	12	0	0	0	0	0	0	0	0	0	0	0	0;
	612	2.14	0	0	0	1.012	100	1	35	0	0	0	0	0	0	0	0	0	0	0	0;
	612	0	0	0	0	1.012	100	0	11.5	0	0	0	0	0	0	0	0	0	0	0	0;
	623	-2.11	-8.97179001	8.3	-8.3	1.049	100	1	8.3	-8.3	0	0	0	0	0	0	0	0	0	0	0;
	632	0	0	4	-4	1.026	100	0	7.3	0	0	0	0	0	0	0	0	0	0	0	0;
	635	0	0	7	0	1.011	100	0	15	0	0	0	0	0	0	0	0	0	0	0	0;
	635	4.02	4.51012722	7	0	1.011	100	1	15	0	0	0	0	0	0	0	0	0	0	0	0;
	640	94.82	-98.1740208	80	-102.8	1.083	100	1	239	0	0	0	0	0	0	0	0	0	0	0	0;
	651	0	0	7	0	1.064	100	0	7	0	0	0	0	0	0	0	0	0	0	0	0;
	669	3.19	0	0	0	1.033	100	1	12	0	0	0	0	0	0	0	0	0	0	0	0;
	669	3.19	0	0	0	1.033	100	1	12	0	0	0	0	0	0	0	0	0	0	0	0;
	670	3.25	0	0	0	1.053	100	1	7.5	0	0	0	0	0	0	0	0	0	0	0	0;
	670	14.25	0	0	0	1.053	100	1	24	0	0	0	0	0	0	0	0	0	0	0	0;
	678	0	0	0	0	1.011	100	0	6.6	0	0	0	0	0	0	0	0	0	0	0	0;
	679	0.12	0	0	0	1.059	100	1	12	0	0	0	0	0	0	0	0	0	0	0	0;
	683	4.2	-4.36309191	6	-5	0.89	100	1	9	0	0	0	0	0	0	0	0	0	0	0	0;
	683	4.2	-4.36309191	6	-5	0.89	100	1	9	0	0	0	0	0	0	0	0	0	0	0	0;
	683	0	0	8	-5	0.89	100	0	11	0	0	0	0	0	0	0	0	0	0	0	0;
	683	4.2	-4.24729044	8	-5	0.89	100	1	11	0	0	0	0	0	0	0	0	0	0	0	0;
	694	16.2	0	0	0	1.055	100	1	32.35	0	0	0	0	0	0	0	0	0	0	0	0;
	694	1.2	0	0	0	1.055	100	1	12	0	0	0	0	0	0	0	0	0	0	0	0;
	694	7.2	0	0	0	1.055	100	1	21	0	0	0	0	0	0	0	0	0	0	0	0;
	698	31.61	-6.696988	15	-17	1.02	100	1	37	0	0	0	0	0	0	0	0	0	0	0	0;
	698	30.63	-6.696988	15	-17	1.02	100	1	37	0	0	0	0	0	0	0	0	0	0	0	0;
	697	32.52	-7.01250359	15	-15	1.02	100	1	37	0	0	0	0	0	0	0	0	0	0	0	0;
	697	29.5	-7.01250359	15	-15	1.02	100	1	37	0	0	0	0	0	0	0	0	0	0	0	0;
	696	31.51	-5.08424369	15	-17	1.023	100	1	37	0	0	0	0	0	0	0	0	0	0	0	0;
	696	31.51	-5.08424369	15	-17	1.023	100	1	37	0	0	0	0	0	0	0	0	0	0	0	0;
	704	1.17	-1.23044365	2	-2	0.896	100	1	4	0	0	0	0	0	0	0	0	0	0	0	0;
	704	1.17	-1.53805456	2.5	-2.5	0.896	100	1	4	0	0	0	0	0	0	0	0	0	0	0	0;
	704	2.87	-1.84566547	3	-3	0.896	100	1	5.7	0	0	0	0	0	0	0	0	0	0	0	0;
	704	0	0	6	-5	0.896	100	0	8.5	0	0	0	0	0	0	0	0	0	0	0	0;
	731	16.79	0	0	0	1.044	100	1	19.5	0	0	0	0	0	0	0	0	0	0	0	0;
	732	27.31	-2.06669284	18	-18	0.977	100	1	39	0	0	0	0	0	0	0	0	0	0	0	0;
	733	1.1	0	0	0	1.004	100	1	11.5	0	0	0	0	0	0	0	0	0	0	0	0;
	733	2.1	0	0	0	1.004	100	1	32	0	0	0	0	0	0	0	0	0	0	0	0;
	735	0	0	0	0	1.051	100	0	12	0	0	0	0	0	0	0	0	0	0	0	0;
	735	7.19	0	0	0	1.051	100	1	32	0	0	0	0	0	0	0	0	0	0	0	0;
	736	0.46	-0.458838549	0.1	-0.1	1.032	100	1	5	0	0	0	0	0	0	0	0	0	0	0	0;
	743	3.56	1.96617738	3.72	-3.7	0.983	100	1	6.7	0	0	0	0	0	0	0	0	0	0	0	0;
	743	2.65	1.58181459	3	-3	0.983	100	1	5.6	0	0	0	0	0	0	0	0	0	0	0	0;
	744	3.25	-20.2891906	15	-19.76	0.975	100	1	26.6	0	0	0	0	0	0	0	0	0	0	0	0;
	745	4.6	3.42256793	2	-2	1.011	100	1	7	1	0	0	0	0	0	0	0	0	0	0	0;
	750	0	0	3	-3	0.975	100	0	5	-5	0	0	0	0	0	0	0	0	0	0	0;
	757	0	0	8	-8	1.068	100	0	23.5	0	0	0	0	0	0	0	0	0	0	0	0;
	759	0	0	0	0	1.037	100	0	6	0	0	0	0	0	0	0	0	0	0	0	0;
	760	0	0	0	0	1.035	100	0	6	0	0	0	0	0	0	0	0	0	0	0	0;
	759	16.11	-4.878276	10	-6	1.037	100	1	37.5	0	0	0	0	0	0	0	0	0	0	0	0;
	760	15.44	-1.49310684	10	-6	1.035	100	1	37.5	0	0	0	0	0	0	0	0	0	0	0	0;
	761	0	0	0.06	-0.06	0.596	100	0	0.6	0	0	0	0	0	0	0	0	0	0	0	0;
	761	0.91	2.61	2.61	-2.61	0.596	100	1	26.1	0	0	0	0	0	0	0	0	0	0	0	0;
	761	0	0	0.16	-0.16	0.596	100	0	1.6	0	0	0	0	0	0	0	0	0	0	0	0;
	761	0	0	0.11	-0.11	0.596	100	0	1.1	0	0	0	0	0	0	0	0	0	0	0	0;
	765	0	0	0	0	1.02	100	0	37.5	0	0	0	0	0	0	0	0	0	0	0	0;
	765	0.16	0	0	0	1.02	100	1	34	0	0	0	0	0	0	0	0	0	0	0	0;
	785	0	0	26	-26	1.004	100	0	8	0	0	0	0	0	0	0	0	0	0	0	0;
	785	0	0	26	-26	1.004	100	0	15	0	0	0	0	0	0	0	0	0	0	0	0;
	786	0	0	26	-26	1.009	100	0	19	0	0	0	0	0	0	0	0	0	0	0	0;
	800	25.57	-6.88815047	15	-17	1.02	100	1	31	0	0	0	0	0	0	0	0	0	0	0	0;
	800	26.55	-6.88815047	15	-17	1.02	100	1	31	0	0	0	0	0	0	0	0	0	0	0	0;
	801	26.91	-5.76537732	15	-17	1.022	100	1	31	0	0	0	0	0	0	0	0	0	0	0	0;
	801	26.91	-5.76537732	15	-17	1.022	100	1	31	0	0	0	0	0	0	0	0	0	0	0	0;
	802	25.92	-6.41234541	15	-17	1.021	100	1	31	0	0	0	0	0	0	0	0	0	0	0	0;
	802	26.91	-6.41234541	15	-17	1.021	100	1	31	0	0	0	0	0	0	0	0	0	0	0	0;
	806	0.88	0	0	0	1.008	100	1	40.8	0	0	0	0	0	0	0	0	0	0	0	0;
	814	23.28	-0.397214016	6	-9	1.023	100	1	32	1	0	0	0	0	0	0	0	0	0	0	0;
	814	0	0	6	-9	1.023	100	0	32	1	0	0	0	0	0	0	0	0	0	0	0;
	815	23.25	0.306271172	6	-9	1.024	100	1	32	1	0	0	0	0	0	0	0	0	0	0	0;
	815	23.25	0.306271172	6	-9	1.024	100	1	32	1	0	0	0	0	0	0	0	0	0	0	0;
	815	21.25	0.306271172	6	-9	1.024	100	1	32	1	0	0	0	0	0	0	0	0	0	0	0;
	815	23.25	0.306271172	6	-9	1.024	100	1	32	1	0	0	0	0	0	0	0	0	0	0	0;
	825	0	0	3	-3	1.042	100	0	13	0	0	0	0	0	0	0	0	0	0	0	0;
	825	1.16	4.89152021	3	-3	1.042	100	1	7	0	0	0	0	0	0	0	0	0	0	0	0;
	828	0	0	0	0	1.059	100	0	2.4	0	0	0	0	0	0	0	0	0	0	0	0;
	829	9.77	-3.63694386	10	-10	1.032	100	1	27	0	0	0	0	0	0	0	0	0	0	0	0;
	830	0	0	10	-10	0.937	100	0	20	0	0	0	0	0	0	0	0	0	0	0	0;
	832	0	0	3.14	-3.43	1.053	100	0	9.8	0	0	0	0	0	0	0	0	0	0	0	0;
...
];

%% branch data
%	fbus	tbus	r	x	b	rateA	rateB	rateC	ratio	angle	status	angmin	angmax	Pf	Qf	Pt	Qt
mpc.branch = [
	4644	1	0.005726	0.010482	0	0	0	0	1	0	1	0	0	-0.0000	1.0000	0.0001	-0.9999;
	5243	1	0.01284	0.025679	0	0	0	0	1	0	1	0	0	0.0002	-0.9996	-0.0001	0.9999;
	1682	2	0.005799	0.010615	0.0075	0	0	0	1	0	1	0	0	0.0000	-0.7901	0.0000	-0.0000;
	1673	3	0.134039	0.309398	0.0035	0	0	0	1	0	1	0	0	13.4398	-0.7196	-13.2069	0.8985;
	2302	3	0.049131	0.133283	0.0015	0	0	0	1	0	1	0	0	-0.7066	0.0477	0.7069	-0.1985;
	694	4	0.025926	0.109136	0.0002	0	0	0	1	0	1	0	0	22.3835	4.6348	-22.2616	-4.1436;
	3940	4	0.05	0.126914	0.0006	0	0	0	1	0	1	0	0	-2.2277	-0.8007	2.2302	0.7419;
	5043	4	0.02321	0.097407	0.0016	0	0	0	1	0	1	0	0	24.8023	-3.9156	-24.6686	4.3017;
	4414	5	0.040564	0.113631	0.0013	0	0	0	1	0	1	0	0	5.9639	0.0043	-5.9500	-0.1000;
	2780	6	0.006047	0.020912	0.0222	0	0	0	1	0	1	0	0	13.0101	1.9590	-13.0000	-4.3000;
	2781	7	0.012472	0.032099	0.0061	0	0	0	1	0	1	0	0	1.2002	0.1357	-1.2000	-0.8000;
	2468	8	0.002607	0.017462	0.0324	540	540	540	1	0	1	0	0	25.8156	1.3508	-25.8000	-4.9000;
	471	9	0.053893	0.14258	0.0017	0	0	0	1	0	1	0	0	12.9826	0.0326	-12.9000	0.0000;
	11	10	0.000247	0.001235	0.0005	0	0	0	1	0	1	0	0	0.0000	-0.0454	0.0000	-0.0080;
	11	10	0.000247	0.001235	0.0002	0	0	0	1	0	1	0	0	0.0000	-0.0294	0.0000	0.0080;
	30	11	0.039753	0.100988	0.0047	0	0	0	1	0	1	0	0	-1.5294	1.1022	1.5309	-1.6010;
	2930	11	0.037654	0.096173	0.001	0	0	0	1	0	1	0	0	30.6551	0.1441	-30.3309	0.5759;
	2180	12	0.014613	0.060721	0.0008	0	0	0	1	0	1	0	0	7.6342	2.9154	-7.6247	-2.9581;
	4018	12	0.034064	0.121139	0.0015	0	0	0	1	0	1	0	0	7.4973	2.9236	-7.4759	-3.0020;
	4020	12	0.000242	0.000442	0.0004	0	0	0	1	0	1	0	0	-15.1000	-6.0000	15.1006	5.9602;
	115	13	2.1e-05	0.000125	0.1386	737	737	737	1	0	1	0	0	-0.0000	114.2468	0.0028	-129.7738;
	2336	13	0.000145	0.001877	0.0635	2487	2487	2487	1	0	1	0	0	-289.8536	-98.3750	289.9743	92.8318;
	4574	13	0.000319	0.003234	0.0838	1841	1841	1841	1	0	1	0	0	290.2256	-59.3533	-289.9771	52.4835;
	116	13	2.1e-05	0.000125	0.1386	737	737	737	1	0	1	0	0	0.0000	0.0000	0.0000	-15.5415;
	1224	14	0.04	0.134198	0.0274	0	0	0	1	0	1	0	0	-51.8215	-0.0094	52.8104	0.2903;
	2875	14	0.012222	0.052346	0.0026	0	0	0	1	0	1	0	0	-36.2909	2.4209	36.4350	-2.0967;
	4592	14	0.007284	0.045432	0.0024	0	0	0	1	0	1	0	0	112.5100	5.0199	-111.7052	-0.2741;
	4950	14	0.059963	0.154222	0.0236	0	0	0	1	0	1	0	0	-40.3240	1.3523	41.2264	-1.6447;
	5229	14	0.018025	0.110988	0.0073	0	0	0	1	0	1	0	0	-6.3513	-4.7522	6.3608	3.9909;
	2875	14	0.012222	0.052593	0.0032	0	0	0	1	0	1	0	0	-36.1319	2.3382	36.2747	-2.0842;
	4592	14	0.007284	0.044938	0.0024	0	0	0	1	0	1	0	0	113.7241	4.8798	-112.9020	-0.0816;
	2907	15	0.037541	0.100529	0.0011	0	0	0	1	0	1	0	0	-31.8301	2.7284	32.2147	-1.8093;
	4126	15	0.090199	0.211388	0.0023	0	0	0	1	0	1	0	0	0.8343	-5.1991	-0.8103	5.0241;
	4454	15	0.09801	0.267574	0	0	0	0	1	0	1	0	0	32.3657	5.8390	-31.4044	-3.2147;
	251	16	0.071806	0.191484	0.0019	0	0	0	1	0	1	0	0	7.6373	3.1833	-7.5913	-3.2635;
	339	16	0.119174	0.284958	0.0044	0	0	0	1	0	1	0	0	6.2526	0.4727	-6.2087	-0.8365;
	5835	17	0.022346	0.061111	0.0029	0	0	0	1	0	1	0	0	11.9088	-0.0398	-11.8800	-0.2000;
	3728	18	0.009383	0.019753	0	0	0	0	1	0	1	0	0	0.0000	0.0000	0.0000	0.0000;
	5091	19	0.000252	0.000504	0	0	0	0	1	0	1	0	0	1.0000	0.0000	-1.0000	0.0000;
	3728	20	0.001975	0.004444	0	0	0	0	1	0	1	0	0	0.9102	-21.4769	-0.9000	21.5000;
	1353	21	0.036296	0.099012	0.0045	0	0	0	1	0	1	0	0	-10.1656	-1.3300	10.2010	0.9411;
	1598	21	0.032716	0.089136	0.0057	0	0	0	1	0	1	0	0	18.6065	-2.6910	-18.5010	2.3589;
	1842	22	0.138574	0.351474	0.0058	0	0	0	1	0	1	0	0	15.4618	-0.2878	-15.1515	0.4667;
	5020	22	0.094407	0.210456	0.0044	0	0	0	1	0	1	0	0	2.8576	1.1322	-2.8485	-1.5667;
	1156	23	0.047115	0.117158	0.001	0	0	0	1	0	1	0	0	6.3569	2.7376	-6.3350	-2.7858;
	2705	23	0.039557	0.120937	0.0132	0	0	0	1	0	1	0	0	20.0289	-0.3194	-19.8759	-0.5728;
	3425	23	0.022676	0.062484	0.0007	0	0	0	1	0	1	0	0	-7.0000	0.0000	7.0109	-0.0414;
	144	24	0.064568	0.16716	0.0113	0	0	0	1	0	1	0	0	16.3323	-2.8456	-16.1723	2.0281;
	1281	24	0.048605	0.128481	0.0062	0	0	0	1	0	1	0	0	-0.2522	-0.2436	0.2523	-0.4281;
	491	25	0.004815	0.02963	0.0016	0	0	0	1	0	1	0	0	44.6618	-14.0474	-44.5698	14.4299;
	2092	25	0.007309	0.04463	0.0073	0	0	0	1	0	1	0	0	12.1370	10.4886	-12.1202	-11.2299;
	611	26	0.034321	0.145802	0.0073	0	0	0	1	0	1	0	0	-34.8549	-0.7093	35.2641	1.6939;
	1865	26	0.004815	0.009753	0.0005	0	0	0	1	0	1	0	0	-14.0000	2.0000	14.0092	-2.0336;
	2604	26	0.049012	0.133704	0.0063	0	0	0	1	0	1	0	0	-27.9746	7.8343	28.3750	-7.3989;
	2923	26	0.04642	0.126543	0.0058	0	0	0	1	0	1	0	0	-10.5508	1.6626	10.6021	-2.1282;
	3339	26	0.046296	0.125926	0.006	0	0	0	1	0	1	0	0	-50.5533	4.3501	51.7383	-1.7428;
	4629	26	0.053704	0.136753	0.0065	0	0	0	1	0	1	0	0	-36.0770	3.9039	36.7741	-2.7995;
	2923	26	0.03358	0.120988	0.0062	0	0	0	1	0	1	0	0	-11.4595	0.8644	11.5022	-1.3576;
	534	27	0.006163	0.041067	0.0759	446	446	446	1	0	1	0	0	92.5041	-25.1309	-92.0144	19.7778;
	2349	27	0.000652	0.004369	0.0081	558	558	558	1	0	1	0	0	131.9180	29.0083	-131.8138	-29.2340;
	2686	28	0.050945	0.131922	0.0015	0	0	0	1	0	1	0	0	15.2672	-0.1438	-15.1553	0.2755;
	3893	28	0.058781	0.149005	0.0017	0	0	0	1	0	1	0	0	-14.3378	0.5968	14.4553	-0.4755;
	2888	29	0.067019	0.137566	0.0037	0	0	0	1	0	1	0	0	27.6541	-18.5922	-26.9139	19.7390;
	3321	29	0.032754	0.088939	0.0039	0	0	0	1	0	1	0	0	15.8220	10.5976	-15.7069	-10.6869;
	3321	29	0.030184	0.080096	0.0053	0	0	0	1	0	1	0	0	17.6092	11.5512	-17.4791	-11.7521;
	144	30	0.066049	0.187778	0.0099	0	0	0	1	0	1	0	0	23.4934	-1.3709	-23.1605	1.2447;
	1553	30	0.065062	0.133704	0.0062	0	0	0	1	0	1	0	0	-0.5574	5.2317	0.5761	-5.8612;
	4836	30	0.041728	0.106049	0.005	0	0	0	1	0	1	0	0	9.4291	-4.8400	-9.3863	4.4142;
	150	31	0.009574	0.03875	0.0114	0	0	0	1	0	1	0	0	-21.8645	-1.9711	21.9083	0.9483;
	3162	31	0.000171	0.000313	0.0002	0	0	0	1	0	1	0	0	0.3000	0.5000	-0.3000	-0.5211;
	3693	31	0.034266	0.09423	0.001	0	0	0	1	0	1	0	0	-33.0950	-0.7312	33.4594	1.6291;
	4740	31	0.006803	0.028219	0	0	0	0	1	0	1	0	0	-6.5357	-7.2197	6.5419	7.2452;
	150	31	0.008566	0.037541	0.0121	0	0	0	1	0	1	0	0	-22.6357	-2.4631	22.6778	1.3739;
	3730	32	0.009733	0.034089	0.0185	0	0	0	1	0	1	0	0	43.4203	0.6855	-43.2507	-2.0877;
	368	34	0.000277	0.002015	0.003	288	288	288	1	0	1	0	0	37.5263	-47.8991	-37.5170	47.6332;
	1016	33	0.00881	0.033995	0.0607	289	289	289	1	0	1	0	0	-91.9667	23.2044	92.6922	-27.1577;
	1157	33	0.004642	0.019832	0.0354	255	255	255	1	0	1	0	0	14.8173	-28.6831	-14.7780	24.9309;
	2582	34	0.008861	0.03506	0.0623	288	288	288	1	0	1	0	0	-22.4000	-29.7465	22.4975	23.2837;
	2706	34	0.006993	0.032869	0.0557	255	255	255	1	0	1	0	0	2.1446	-4.2271	-2.1443	-1.9556;
	4745	33	0.002173	0.008731	0.0152	0	0	0	1	0	1	0	0	-61.4850	-45.5632	61.5990	44.3391;
	4853	34	0.00077	0.003121	0.0051	0	0	0	1	0	1	0	0	-4.8772	-11.3261	4.8782	10.7640;
	5670	33	0.004109	0.016138	0.0284	288	288	288	1	0	1	0	0	22.1459	-23.3359	-22.1101	20.3257;
	370	35	8.3e-05	0.000907	0.0202	1034	1034	1034	1	0	1	0	0	147.3900	-89.0357	-147.3688	86.9385;
	1108	35	0.000552	0.006726	0.0939	1786	1786	1786	1	0	1	0	0	487.3112	-39.3990	-486.1692	42.4812;
	2149	35	0.000512	0.008012	0.2455	2462	2462	2462	1	0	1	0	0	278.2708	-17.4882	-277.9276	-5.4869;
	3135	35	0.001107	0.00918	0.1906	1644	1644	1644	1	0	1	0	0	-230.0762	4.5783	230.5877	-22.3003;
	369	36	6.2e-05	0.000741	0.0173	1095	1095	1095	1	0	1	0	0	131.7000	17.7214	-131.6906	-19.6266;
	2149	35	0.000512	0.008019	0.2455	2462	2462	2462	1	0	1	0	0	278.0290	-17.4699	-277.6865	-5.5099;
	2149	36	0.001153	0.013123	0.1841	1433	1433	1433	1	0	1	0	0	38.7560	-53.7418	-38.7225	32.7538;
	5228	37	0.055933	0.120685	0.0013	0	0	0	1	0	1	0	0	-16.5603	9.2676	16.7587	-8.9719;
	5514	37	0.039053	0.084404	0.001	0	0	0	1	0	1	0	0	20.1204	-4.4243	-19.9587	4.6719;
	724	38	0.00252	0.006551	0.0001	0	0	0	1	0	1	0	0	6.0009	-2.0087	-6.0000	2.0000;
	1228	39	0.009877	0.042222	0.0021	0	0	0	1	0	1	0	0	44.7665	-4.2571	-44.5823	4.8176;
	5809	39	0.024815	0.063086	0.0029	0	0	0	1	0	1	0	0	-47.6221	7.4035	48.1645	-6.3351;
	1228	39	0.009877	0.042222	0.0021	0	0	0	1	0	1	0	0	44.7665	-4.2571	-44.5823	4.8176;
	2250	40	0.056173	0.142593	0.0066	0	0	0	1	0	1	0	0	17.5425	-7.2469	-17.3647	6.9580;
	4592	40	0.034444	0.109012	0.0076	0	0	0	1	0	1	0	0	15.3217	6.8688	-15.2353	-7.4580;
	431	41	0.000158	0.000672	0.0719	331	331	331	1	0	1	0	0	14.7004	-6.3174	-14.7001	-2.0669;
	3954	41	4.5e-05	8.9e-05	0.002	268	268	268	1	0	1	0	0	-14.7000	-2.3000	14.7001	2.0669;
	1482	42	0.01096	0.020063	0.009	0	0	0	1	0	1	0	0	0.0207	-0.3260	-0.0207	-0.8041;
	2766	42	0.002268	0.008818	0.0099	0	0	0	1	0	1	0	0	-0.0207	-2.0468	0.0207	0.8041;
	2725	43	0.001481	0.006296	0.0039	0	0	0	1	0	1	0	0	3.6002	1.5742	-3.6000	-2.0000;
	3488	44	0.050617	0.137012	0.009	0	0	0	1	0	1	0	0	23.6481	-7.1853	-23.3576	7.0260;
	4324	44	0.074326	0.194507	0.0021	0	0	0	1	0	1	0	0	-10.2541	6.3754	10.3576	-6.3260;
	5094	45	0.000247	0.000741	0	0	0	0	1	0	1	0	0	3.9000	1.7001	-3.9000	-1.7000;
	1084	46	0.049131	0.134039	0.001	0	0	0	1	0	1	0	0	6.3121	1.4006	-6.2922	-1.4493;
	2193	46	0.033258	0.090955	0.001	0	0	0	1	0	1	0	0	-4.3824	-1.8295	4.3897	1.7473;
	3305	46	0.067437	0.123442	0.001	0	0	0	1	0	1	0	0	-1.9000	0.2000	1.9024	-0.2980;
	1084	47	0.037289	0.118166	0.001	0	0	0	1	0	1	0	0	-23.5973	12.4521	23.8543	-11.7409;
	5362	48	0.021358	0.057037	0.0005	0	0	0	1	0	1	0	0	33.3819	3.9387	-33.1600	-3.4000;
	1222	49	0.071303	0.180902	0.0021	0	0	0	1	0	1	0	0	-9.2292	1.7180	9.2905	-1.7796;
	2344	49	0.071554	0.18191	0.0021	0	0	0	1	0	1	0	0	18.3252	-3.1021	-18.0905	3.4796;
	471	50	0.028193	0.104535	0.0013	0	0	0	1	0	1	0	0	-53.4733	1.0594	54.2064	1.5138;
	1676	50	0.055404	0.171429	0.01	0	0	0	1	0	1	0	0	-17.2000	-4.5000	17.3572	3.8723;
	3554	50	0.010834	0.071554	0.001	0	0	0	1	0	1	0	0	-26.0538	-4.8439	26.1218	5.1805;
	4626	50	0.013857	0.030234	0.0003	0	0	0	1	0	1	0	0	-40.2786	-7.5025	40.4872	7.9239;
	3554	50	0.011414	0.070648	0.0009	0	0	0	1	0	1	0	0	-26.3937	-4.6309	26.4669	4.9831;
	4626	50	0.013757	0.030108	0.0003	0	0	0	1	0	1	0	0	-40.4599	-7.5848	40.6689	8.0086;
	1195	51	0.00478	0.028622	0.0547	455	455	455	1	0	1	0	0	91.2023	26.0562	-90.8164	-29.8901;
	1196	51	0.00478	0.028583	0.0547	455	455	455	1	0	1	0	0	115.5296	15.7220	-114.9510	-18.3954;
	166	52	0.01284	0.032716	0.0015	0	0	0	1	0	1	0	0	66.4376	-5.4961	-65.9123	6.6725;
	5488	52	0.014198	0.036049	0.0016	0	0	0	1	0	1	0	0	-60.4107	10.1752	60.9123	-9.0725;
	3349	53	0.005291	0.021668	0.0003	0	0	0	1	0	1	0	0	2.5003	-0.5297	-2.5000	0.5000;
	2770	54	0.01358	0.047654	0.0023	0	0	0	1	0	1	0	0	-0.4000	-0.2476	0.4000	0.0000;
	375	55	0.000257	0.000514	0.0294	0	0	0	1	0	1	0	0	37.6032	3.3425	-37.6000	-6.7000;
	2695	56	0.000257	0.002153	0.2147	452	452	452	1	0	1	0	0	-142.0276	-2.7403	142.0725	-21.7917;
	3427	56	0.000277	0.000869	0.0931	481	481	481	1	0	1	0	0	194.2630	-18.8142	-194.1725	8.2917;
	5095	57	0.000756	0.00252	0	0	0	0	1	0	1	0	0	0.0000	-2.4152	-0.0000	2.4153;
	3390	58	0.000237	0.00083	0.1863	268	268	268	1	0	1	0	0	134.4791	13.5428	-134.4405	-34.7233;
	3566	58	0.000178	0.000612	0.1377	268	268	268	1	0	1	0	0	-3.8402	-20.3693	3.8405	4.6233;
	142	59	0.030486	0.076342	0.002	0	0	0	1	0	1	0	0	10.2016	1.0092	-10.1705	-1.1371;
	1652	59	0.011086	0.024691	0.0015	0	0	0	1	0	1	0	0	-5.0677	0.0154	5.0705	-0.1629;
	2478	60	0.044344	0.170572	0.0021	0	0	0	1	0	1	0	0	11.7772	3.6820	-11.7141	-3.6629;
	3526	60	0.036709	0.151776	0.0017	0	0	0	1	0	1	0	0	-11.6614	-3.6223	11.7141	3.6629;
	2227	61	0.017788	0.048551	0.0006	0	0	0	1	0	1	0	0	27.2546	6.3001	-27.1256	-6.0124;
	2636	61	0.057521	0.145251	0.0017	0	0	0	1	0	1	0	0	12.4642	3.7313	-12.3744	-3.6876;
	2047	62	0.014109	0.057949	0.0029	0	0	0	1	0	1	0	0	7.3013	-1.8552	-7.2936	1.5899;
	2951	62	0.007055	0.02973	0.0014	0	0	0	1	0	1	0	0	-7.2898	1.4626	7.2936	-1.5899;
	373	63	0.024263	0.065911	0.0007	0	0	0	1	0	1	0	0	-0.9337	-0.2958	0.9339	0.2249;
	3082	63	0.020912	0.059209	0.0016	0	0	0	1	0	1	0	0	16.7921	2.2254	-16.7339	-2.2249;
	145	64	0.002568	0.011753	0.0203	424	424	424	1	0	1	0	0	45.2430	-1.4450	-45.1975	-0.6904;
	5105	64	0.002568	0.011615	0.0228	290	290	290	1	0	1	0	0	16.0182	-2.2948	-16.0125	-0.3096;
	4604	65	0.006299	0.033585	0.0599	0	0	0	1	0	1	0	0	5.5076	-5.1130	-5.5056	-1.3941;
	4604	65	0.006299	0.033661	0.06	0	0	0	1	0	1	0	0	5.4963	-5.1121	-5.4944	-1.4059;
	1546	66	0.102293	0.226757	0.0025	0	0	0	1	0	1	0	0	-10.9000	5.0000	11.0406	-4.9524;
	2291	66	0.177551	0.405291	0.0046	0	0	0	1	0	1	0	0	26.2786	-9.1579	-24.9924	11.6064;
	3249	66	0.088264	0.161566	0.0017	0	0	0	1	0	1	0	0	-0.7499	-1.4215	0.7519	1.2460;
	3031	67	0.007307	0.014613	0.0002	0	0	0	1	0	1	0	0	0.0000	-0.0218	-0.0000	-0.0000;
	2193	68	0.043336	0.11867	0.001	0	0	0	1	0	1	0	0	-10.2176	0.8295	10.2623	-0.8092;
	2884	68	0.067775	0.139834	0.001	0	0	0	1	0	1	0	0	-2.2584	-2.6717	2.2664	2.5862;
	4534	68	0.047367	0.16125	0.0021	0	0	0	1	0	1	0	0	23.0995	1.0176	-22.8582	-0.4140;
	5148	68	0.004031	0.016629	0.001	0	0	0	1	0	1	0	0	37.8266	1.3917	-37.7705	-1.2629;
	4607	69	0.073066	0.205089	0.0022	0	0	0	1	0	1	0	0	12.1533	-2.6493	-12.0500	2.7000;
	5096	70	4.8e-05	8.8e-05	0.0001	0	0	0	1	0	1	0	0	7.3300	2.6898	-7.3300	-2.7000;
	2164	71	0.000252	0.00252	0.0008	0	0	0	1	0	1	0	0	-0.5000	-0.0000	0.5000	-0.0844;
	3145	71	0.030738	0.088687	0.0169	0	0	0	1	0	1	0	0	21.6772	2.9218	-21.5386	-4.3212;
	5097	71	0.006551	0.016377	0.0171	0	0	0	1	0	1	0	0	15.8107	3.3494	-15.7941	-5.1146;
	3145	71	0.025195	0.07483	0.0204	0	0	0	1	0	1	0	0	25.7279	3.6849	-25.5673	-5.3799;
	3747	72	9.9e-05	0.00077	0.078	379	379	379	1	0	1	0	0	-65.3964	-10.1977	65.4000	0.9877;
	3747	73	9.9e-05	0.00077	0.077	379	379	379	1	0	1	0	0	-63.3966	-7.1786	63.4000	-1.9146;
	5105	74	0.000514	0.003437	0.0061	290	290	290	1	0	1	0	0	-16.0182	2.2948	16.0194	-2.9909;
	5125	74	0.005476	0.036879	0.1255	522	522	522	1	0	1	0	0	-18.3205	-38.4102	18.3844	24.5172;
	145	74	0.000514	0.003457	0.0061	418	418	418	1	0	1	0	0	84.8364	11.1412	-84.8038	-11.6264;
	4961	75	0.017531	0.046914	0.0023	0	0	0	1	0	1	0	0	11.9103	0.6138	-11.8882	-0.8130;
	2083	75	0.005309	0.014321	0.0006	0	0	0	1	0	1	0	0	10.4170	0.9336	-10.4118	-0.9870;
	3083	76	0.003477	0.01118	0.0187	304	304	304	1	0	1	0	0	-37.1073	-8.6604	37.1505	6.6361;
	3833	76	0.000612	0.003121	0.0152	270	270	270	1	0	1	0	0	39.7590	4.5172	-39.7505	-6.2361;
	2343	77	0.013857	0.035525	0.0004	0	0	0	1	0	1	0	0	36.9814	0.0234	-36.8000	0.4000;
	242	78	0.002771	0.008314	0.0083	0	0	0	1	0	1	0	0	1.0000	0.0414	-1.0000	-0.9000;
	4559	78	0.000151	0.000302	0	0	0	0	1	0	1	0	0	-1.0000	-0.9000	1.0000	0.9000;
	629	79	0.010758	0.02187	0.0071	0	0	0	1	0	1	0	0	-16.0500	-0.3500	16.0766	-0.3383;
	1870	79	0.003779	0.014613	0.0198	0	0	0	1	0	1	0	0	38.4500	7.8610	-38.3941	-9.7236;
	2411	79	0.008314	0.017057	0.024	0	0	0	1	0	1	0	0	-10.8000	-1.4000	10.8093	-1.0920;
	4078	79	0.000252	0.001764	0.0043	0	0	0	1	0	1	0	0	2.3159	-4.3140	-2.3159	3.8641;
	629	79	0.010758	0.02187	0.0071	0	0	0	1	0	1	0	0	-16.0500	-0.3500	16.0766	-0.3383;
	4077	79	0.000302	0.001562	0.0037	0	0	0	1	0	1	0	0	2.2526	-8.0146	-2.2524	7.6282;
	4079	81	2.4e-05	0.000144	0.0213	701	701	701	1	0	1	0	0	36.3003	7.4269	-36.3000	-9.9000;
	4079	80	7.1e-05	0.000162	0.0162	251	251	251	1	0	1	0	0	32.3007	5.4193	-32.3000	-7.3000;
	674	82	0.068027	0.173091	0.002	0	0	0	1	0	1	0	0	-23.7926	0.2274	24.1775	0.5485;
	797	82	0.027211	0.068783	0.001	0	0	0	1	0	1	0	0	-0.7369	-5.0557	0.7437	4.9699;
	2072	82	0.03099	0.202822	0.002	0	0	0	1	0	1	0	0	37.0380	9.6333	-36.6212	-7.1183;
	3485	83	0.000257	0.001165	0.002	405	405	405	1	0	1	0	0	77.5153	26.2440	-77.5000	-26.4000;
	2128	84	0.045603	0.11741	0.001	0	0	0	1	0	1	0	0	7.8094	6.0829	-7.7666	-6.0767;
	3803	84	0.008566	0.024691	0	0	0	0	1	0	1	0	0	-9.3549	-7.2429	9.3666	7.2767;
	5100	85	0.047317	0.131595	0.0015	0	0	0	1	0	1	0	0	2.1041	-2.2487	-2.1000	2.1000;
	2810	86	0.040494	0.128889	0.0064	0	0	0	1	0	1	0	0	40.7922	1.2729	-40.1650	0.0456;
	3512	86	0.037778	0.097037	0.0045	0	0	0	1	0	1	0	0	5.9921	3.2184	-5.9750	-3.6456;
	3772	87	0.032071	0.058705	0.0006	0	0	0	1	0	1	0	0	-4.2471	-1.5489	4.2534	1.4983;
	4348	87	0.062887	0.204157	0.002	0	0	0	1	0	1	0	0	8.5616	2.9480	-8.5126	-2.9989;
	3772	87	0.032026	0.058624	0.0006	0	0	0	1	0	1	0	0	-4.2529	-1.5511	4.2593	1.5005;
	1617	88	0.075838	0.224742	0.0027	0	0	0	1	0	1	0	0	7.8570	3.0333	-7.8056	-3.1629;
	1706	88	0.028471	0.089695	0.001	0	0	0	1	0	1	0	0	-0.0000	-0.0000	0.0000	-0.1032;
	3644	88	0.080373	0.255732	0.003	0	0	0	1	0	1	0	0	1.7074	-3.8178	-1.6945	3.5518;
	5558	88	0.000252	0.000504	0	0	0	0	1	0	1	0	0	4.0000	0.1858	-4.0000	-0.1857;
	2498	89	0.033531	0.087235	0.0166	0	0	0	1	0	1	0	0	19.8891	-5.9437	-19.7585	4.4914;
	4228	89	0.03037	0.08321	0.0039	0	0	0	1	0	1	0	0	5.6577	4.9134	-5.6415	-5.2914;
	5101	90	0.000444	0.001136	0	0	0	0	1	0	1	0	0	0.4000	-1.4000	-0.4000	1.4000;
	3728	91	0.057284	0.130864	0	0	0	0	1	0	1	0	0	1.0006	0.0015	-1.0000	-0.0000;
	647	92	0.054749	0.157445	0.0027	0	0	0	1	0	1	0	0	24.4968	-0.0525	-24.1824	0.6777;
	4057	92	0.038549	0.103049	0.0012	0	0	0	1	0	1	0	0	-11.0000	0.0000	11.0461	0.0015;
...
];

%%-----  OPF Data  -----%%
%% generator cost data
%	1	startup	shutdown	n	x1	y1	...	xn	yn
%	2	startup	shutdown	n	c(n-1)	...	c0
mpc.gencost = [
	2	0	0	3	0	2	0;
	2	0	0	3	0	2	0;
	2	0	0	3	0	1	0;
	2	0	0	3	0	2	0;
	2	0	0	3	0	2	0;
	2	0	0	3	0	1	0;
	2	0	0	3	0	2	0;
	2	0	0	3	0	2	0;
	2	0	0	3	0	2	0;
	2	0	0	3	0	1	0;
	2	0	0	3	0	1	0;
	2	0	0	3	0	2	0;
	2	0	0	3	0	2	0;
	2	0	0	3	0	1	0;
	2	0	0	3	0	2	0;
	2	0	0	3	0	1	0;
	2	0	0	3	0	1	0;
	2	0	0	3	0	2	0;
	2	0	0	3	0	2	0;
	2	0	0	3	0	1	0;
	2	0	0	3	0	1	0;
	2	0	0	3	0	1	0;
	2	0	0	3	0	2	0;
	2	0	0	3	0	1	0;
	2	0	0	3	0	1	0;
	2	0	0	3	0	1	0;
	2	0	0	3	0	1	0;
	2	0	0	3	0	1	0;
	2	0	0	3	0	1	0;
	2	0	0	3	0	1	0;
	2	0	0	3	0	2	0;
	2	0	0	3	0	2	0;
	2	0	0	3	0	2	0;
	2	0	0	3	0	2	0;
	2	0	0	3	0	1	0;
	2	0	0	3	0	2	0;
	2	0	0	3	0	1	0;
	2	0	0	3	0	2	0;
	2	0	0	3	0	2	0;
	2	0	0	3	0	2	0;
	2	0	0	3	0	2	0;
	2	0	0	3	0	2	0;
	2	0	0	3	0	2	0;
	2	0	0	3	0	1	0;
	2	0	0	3	0	1	0;
	2	0	0	3	0	1	0;
	2	0	0	3	0	2	0;
	2	0	0	3	0	1	0;
	2	0	0	3	0	1	0;
	2	0	0	3	0	1	0;
	2	0	0	3	0	2	0;
	2	0	0	3	0	1	0;
	2	0	0	3	0	2	0;
	2	0	0	3	0	2	0;
	2	0	0	3	0	2	0;
	2	0	0	3	0	2	0;
	2	0	0	3	0	2	0;
	2	0	0	3	0	2	0;
	2	0	0	3	0	1	0;
	2	0	0	3	0	1	0;
	2	0	0	3	0	2	0;
	2	0	0	3	0	2	0;
	2	0	0	3	0	2	0;
	2	0	0	3	0	2	0;
	2	0	0	3	0	1	0;
	2	0	0	3	0	1	0;
	2	0	0	3	0	1	0;
	2	0	0	3	0	2	0;
	2	0	0	3	0	2	0;
	2	0	0	3	0	1	0;
	2	0	0	3	0	2	0;
	2	0	0	3	0	2	0;
	2	0	0	3	0	1	0;
	2	0	0	3	0	1	0;
	2	0	0	3	0	2	0;
	2	0	0	3	0	2	0;
	2	0	0	3	0	2	0;
	2	0	0	3	0	1	0;
	2	0	0	3	0	2	0;
	2	0	0	3	0	2	0;
	2	0	0	3	0	1	0;
	2	0	0	3	0	1	0;
	2	0	0	3	0	1	0;
	2	0	0	3	0	2	0;
	2	0	0	3	0	1	0;
	2	0	0	3	0	1	0;
	2	0	0	3	0	2	0;
	2	0	0	3	0	2	0;
	2	0	0	3	0	2	0;
	2	0	0	3	0	2	0;
	2	0	0	3	0	1	0;
	2	0	0	3	0	1	0;
	2	0	0	3	0	1	0;
	2	0	0	3	0	1	0;
	2	0	0	3	0	2	0;
	2	0	0	3	0	2	0;
	2	0	0	3	0	2	0;
	2	0	0	3	0	2	0;
	2	0	0	3	0	2	0;
	2	0	0	3	0	2	0;
	2	0	0	3	0	2	0;
	2	0	0	3	0	2	0;
	2	0	0	3	0	1	0;
	2	0	0	3	0	2	0;
	2	0	0	3	0	2	0;
	2	0	0	3	0	1	0;
	2	0	0	3	0	1	0;
	2	0	0	3	0	1	0;
	2	0	0	3	0	1	0;
	2	0	0	3	0	2	0;
	2	0	0	3	0	1	0;
	2	0	0	3	0	1	0;
	2	0	0	3	0	1	0;
	2	0	0	3	0	1	0;
	2	0	0	3	0	1	0;
	2	0	0	3	0	1	0;
	2	0	0	3	0	2	0;
	2	0	0	3	0	2	0;
	2	0	0	3	0	2	0;
	2	0	0	3	0	1	0;
	2	0	0	3	0	2	0;
	2	0	0	3	0	1	0;
	2	0	0	3	0	1	0;
	2	0	0	3	0	1	0;
	2	0	0	3	0	1	0;
	2	0	0	3	0	2	0;
	2	0	0	3	0	1	0;
	2	0	0	3	0	2	0;
	2	0	0	3	0	2	0;
	2	0	0	3	0	1	0;
	2	0	0	3	0	1	0;
	2	0	0	3	0	2	0;
	2	0	0	3	0	1	0;
	2	0	0	3	0	1	0;
	2	0	0	3	0	1	0;
	2	0	0	3	0	1	0;
	2	0	0	3	0	2	0;
	2	0	0	3	0	1	0;
	2	0	0	3	0	1	0;
	2	0	0	3	0	1	0;
	2	0	0	3	0	2	0;
	2	0	0	3	0	1	0;
	2	0	0	3	0	1	0;
	2	0	0	3	0	1	0;
	2	0	0	3	0	1	0;
	2	0	0	3	0	1	0;
	2	0	0	3	0	1	0;
	2	0	0	3	0	1	0;
	2	0	0	3	0	1	0;
	2	0	0	3	0	1	0;
	2	0	0	3	0	1	0;
	2	0	0	3	0	1	0;
	2	0	0	3	0	1	0;
	2	0	0	3	0	1	0;
	2	0	0	3	0	2	0;
	2	0	0	3	0	1	0;
	2	0	0	3	0	1	0;
	2	0	0	3	0	1	0;
	2	0	0	3	0	1	0;
	2	0	0	3	0	2	0;
	2	0	0	3	0	1	0;
	2	0	0	3	0	1	0;
	2	0	0	3	0	1	0;
	2	0	0	3	0	1	0;
	2	0	0	3	0	1	0;
	2	0	0	3	0	1	0;
	2	0	0	3	0	2	0;
	2	0	0	3	0	2	0;
	2	0	0	3	0	2	0;
	2	0	0	3	0	2	0;
	2	0	0	3	0	1	0;
	2	0	0	3	0	1	0;
	2	0	0	3	0	2	0;
	2	0	0	3	0	1	0;
	2	0	0	3	0	2	0;
	2	0	0	3	0	2	0;
	2	0	0	3	0	2	0;
	2	0	0	3	0	1	0;
	2	0	0	3	0	2	0;
	2	0	0	3	0	2	0;
	2	0	0	3	0	2	0;
	2	0	0	3	0	1	0;
	2	0	0	3	0	1	0;
	2	0	0	3	0	1	0;
	2	0	0	3	0	1	0;
	2	0	0	3	0	1	0;
	2	0	0	3	0	1	0;
	2	0	0	3	0	1	0;
	2	0	0	3	0	1	0;
	2	0	0	3	0	2	0;
	2	0	0	3	0	1	0;
	2	0	0	3	0	1	0;
	2	0	0	3	0	1	0;
	2	0	0	3	0	1	0;
	2	0	0	3	0	2	0;
	2	0	0	3	0	1	0;
	2	0	0	3	0	2	0;
	2	0	0	3	0	1	0;
	2	0	0	3	0	2	0;
	2	0	0	3	0	2	0;
...
];
